
#======================================================================
# CRYSTAL DATA
#----------------------------------------------------------------------
data_VESTA_phase_1

_chemical_name_common                  'Wien97 struct file generated by XCrySD'
_cell_length_a                         8.436000
_cell_length_b                         8.436000
_cell_length_c                         8.436000
_cell_angle_alpha                      90.000000
_cell_angle_beta                       90.000000
_cell_angle_gamma                      90.000000
_cell_volume                           600.357158
_space_group_name_H-M_alt              'P 1'
_space_group_IT_number                 1

loop_
_space_group_symop_operation_xyz
   'x, y, z'

loop_
   _atom_site_label
   _atom_site_occupancy
   _atom_site_fract_x
   _atom_site_fract_y
   _atom_site_fract_z
   _atom_site_adp_type
   _atom_site_B_iso_or_equiv
   _atom_site_type_symbol
   Mn1        1.0     0.000000     0.000000     0.000000    Biso  1.000000 Mn
   Mn2        1.0     0.000000     0.500000     0.500000    Biso  1.000000 Mn
   Mn3        1.0     0.500000     0.500000     0.000000    Biso  1.000000 Mn
   Mn4        1.0     0.500000     0.000000     0.500000    Biso  1.000000 Mn
   Mn5        1.0     0.744344     0.236511     0.744344    Biso  1.000000 Mn
   Mn6        1.0     0.236511     0.744344     0.744344    Biso  1.000000 Mn
   Mn7        1.0     0.744344     0.744344     0.236511    Biso  1.000000 Mn
   Mn8        1.0     0.241315     0.241315     0.241315    Biso  1.000000 Mn
   Fe16       1.0     0.623301     0.623301     0.623301    Biso  1.000000 Fe
   Fe1        1.0     0.363138     0.865782     0.112668    Biso  1.000000 Fe
   Fe2        1.0     0.865782     0.112668     0.363138    Biso  1.000000 Fe
   Fe3        1.0     0.112668     0.363138     0.865782    Biso  1.000000 Fe
   Fe4        1.0     0.865782     0.363138     0.112668    Biso  1.000000 Fe
   Fe5        1.0     0.363138     0.112668     0.865782    Biso  1.000000 Fe
   Fe6        1.0     0.112668     0.865782     0.363138    Biso  1.000000 Fe
   Fe7        1.0     0.625306     0.112598     0.112598    Biso  1.000000 Fe
   Fe8        1.0     0.112598     0.625306     0.112598    Biso  1.000000 Fe
   Fe9        1.0     0.112598     0.112598     0.625306    Biso  1.000000 Fe
   Fe10       1.0     0.364670     0.364670     0.624939    Biso  1.000000 Fe
   Fe11       1.0     0.364670     0.624939     0.364670    Biso  1.000000 Fe
   Fe12       1.0     0.624939     0.364670     0.364670    Biso  1.000000 Fe
   Fe13       1.0     0.868480     0.628330     0.868480    Biso  1.000000 Fe
   Fe14       1.0     0.868480     0.868480     0.628330    Biso  1.000000 Fe
   Fe15       1.0     0.628330     0.868480     0.868480    Biso  1.000000 Fe
   O1         1.0     0.380603     0.380603     0.380603    Biso  1.000000 O
   O2         1.0     0.619204     0.104526     0.864242    Biso  1.000000 O
   O3         1.0     0.104526     0.864242     0.619204    Biso  1.000000 O
   O4         1.0     0.864242     0.619204     0.104526    Biso  1.000000 O
   O5         1.0     0.104526     0.619204     0.864242    Biso  1.000000 O
   O6         1.0     0.619204     0.864242     0.104526    Biso  1.000000 O
   O7         1.0     0.864242     0.104526     0.619204    Biso  1.000000 O
   O8         1.0     0.123795     0.642052     0.353781    Biso  1.000000 O
   O9         1.0     0.642052     0.353781     0.123795    Biso  1.000000 O
   O10        1.0     0.353781     0.123795     0.642052    Biso  1.000000 O
   O11        1.0     0.642052     0.123795     0.353781    Biso  1.000000 O
   O12        1.0     0.123795     0.353781     0.642052    Biso  1.000000 O
   O13        1.0     0.353781     0.642052     0.123795    Biso  1.000000 O
   O14        1.0     0.856640     0.856640     0.856640    Biso  1.000000 O
   O15        1.0     0.365405     0.870359     0.870359    Biso  1.000000 O
   O16        1.0     0.870359     0.365405     0.870359    Biso  1.000000 O
   O17        1.0     0.870359     0.870359     0.365405    Biso  1.000000 O
   O18        1.0     0.624443     0.624443     0.365449    Biso  1.000000 O
   O19        1.0     0.624443     0.365449     0.624443    Biso  1.000000 O
   O20        1.0     0.365449     0.624443     0.624443    Biso  1.000000 O
   O21        1.0     0.090521     0.381626     0.090521    Biso  1.000000 O
   O22        1.0     0.090521     0.090521     0.381626    Biso  1.000000 O
   O23        1.0     0.381626     0.090521     0.090521    Biso  1.000000 O
   O24        1.0     0.133698     0.133698     0.863671    Biso  1.000000 O
   O25        1.0     0.133698     0.863671     0.133698    Biso  1.000000 O
   O26        1.0     0.863671     0.133698     0.133698    Biso  1.000000 O
   O27        1.0     0.865192     0.345340     0.345340    Biso  1.000000 O
   O28        1.0     0.345340     0.865192     0.345340    Biso  1.000000 O
   O29        1.0     0.345340     0.345340     0.865192    Biso  1.000000 O
   O30        1.0     0.642444     0.863475     0.642444    Biso  1.000000 O
   O31        1.0     0.642444     0.642444     0.863475    Biso  1.000000 O
   O32        1.0     0.863475     0.642444     0.642444    Biso  1.000000 O
