
#======================================================================
# CRYSTAL DATA
#----------------------------------------------------------------------
data_VESTA_phase_1

_chemical_name_common                  'Wien97 struct file generated by XCrySD'
_cell_length_a                         8.420000
_cell_length_b                         8.420000
_cell_length_c                         8.420000
_cell_angle_alpha                      90.000000
_cell_angle_beta                       90.000000
_cell_angle_gamma                      90.000000
_cell_volume                           596.947704
_space_group_name_H-M_alt              'P 1'
_space_group_IT_number                 1

loop_
_space_group_symop_operation_xyz
   'x, y, z'

loop_
   _atom_site_label
   _atom_site_occupancy
   _atom_site_fract_x
   _atom_site_fract_y
   _atom_site_fract_z
   _atom_site_adp_type
   _atom_site_B_iso_or_equiv
   _atom_site_type_symbol
   Fe1        1.0     0.000000     0.000000     0.000000    Biso  1.000000 Fe
   Fe2        1.0     0.000000     0.500000     0.500000    Biso  1.000000 Fe
   Fe3        1.0     0.500000     0.000000     0.500000    Biso  1.000000 Fe
   Fe4        1.0     0.500000     0.500000     0.000000    Biso  1.000000 Fe
   Fe5        1.0     0.750016     0.249984     0.756112    Biso  1.000000 Fe
   Fe6        1.0     0.249984     0.249984     0.243888    Biso  1.000000 Fe
   Fe7        1.0     0.249984     0.750016     0.756112    Biso  1.000000 Fe
   Fe8        1.0     0.750016     0.750016     0.243888    Biso  1.000000 Fe
   Mn1        1.0     0.624364     0.624364     0.622683    Biso  1.000000 Mn
   Mn2        1.0     0.375636     0.375636     0.622683    Biso  1.000000 Mn
   Mn3        1.0     0.375636     0.624364     0.377317    Biso  1.000000 Mn
   Mn4        1.0     0.624364     0.375636     0.377317    Biso  1.000000 Mn
   Fe9        1.0     0.374306     0.874291     0.127645    Biso  1.000000 Fe
   Fe10       1.0     0.125709     0.374306     0.872355    Biso  1.000000 Fe
   Fe11       1.0     0.874291     0.374306     0.127645    Biso  1.000000 Fe
   Fe12       1.0     0.374306     0.125709     0.872355    Biso  1.000000 Fe
   Fe13       1.0     0.625694     0.125709     0.127645    Biso  1.000000 Fe
   Fe14       1.0     0.874291     0.625694     0.872355    Biso  1.000000 Fe
   Fe15       1.0     0.125709     0.625694     0.127645    Biso  1.000000 Fe
   Fe16       1.0     0.625694     0.874291     0.872355    Biso  1.000000 Fe
   Mn5        1.0     0.875643     0.124357     0.377331    Biso  1.000000 Mn
   Mn6        1.0     0.124357     0.875643     0.377331    Biso  1.000000 Mn
   Mn7        1.0     0.875643     0.875643     0.622669    Biso  1.000000 Mn
   Mn8        1.0     0.124357     0.124357     0.622669    Biso  1.000000 Mn
   O1         1.0     0.390758     0.390758     0.389732    Biso  1.000000 O
   O2         1.0     0.609242     0.609242     0.389732    Biso  1.000000 O
   O3         1.0     0.609242     0.390758     0.610268    Biso  1.000000 O
   O4         1.0     0.390758     0.609242     0.610268    Biso  1.000000 O
   O5         1.0     0.614350     0.114343     0.885054    Biso  1.000000 O
   O6         1.0     0.114343     0.614350     0.885054    Biso  1.000000 O
   O7         1.0     0.109249     0.890751     0.610281    Biso  1.000000 O
   O8         1.0     0.890751     0.109249     0.610281    Biso  1.000000 O
   O9         1.0     0.109249     0.109249     0.389719    Biso  1.000000 O
   O10        1.0     0.890751     0.890751     0.389719    Biso  1.000000 O
   O11        1.0     0.885656     0.614350     0.114946    Biso  1.000000 O
   O12        1.0     0.614350     0.885656     0.114946    Biso  1.000000 O
   O13        1.0     0.385650     0.885656     0.885054    Biso  1.000000 O
   O14        1.0     0.114343     0.385650     0.114946    Biso  1.000000 O
   O15        1.0     0.885656     0.385650     0.885054    Biso  1.000000 O
   O16        1.0     0.385650     0.114343     0.114946    Biso  1.000000 O
   O17        1.0     0.141212     0.641196     0.370193    Biso  1.000000 O
   O18        1.0     0.358804     0.141212     0.629807    Biso  1.000000 O
   O19        1.0     0.641196     0.141212     0.370193    Biso  1.000000 O
   O20        1.0     0.141212     0.358804     0.629807    Biso  1.000000 O
   O21        1.0     0.858788     0.358804     0.370193    Biso  1.000000 O
   O22        1.0     0.641196     0.858788     0.629807    Biso  1.000000 O
   O23        1.0     0.358804     0.858788     0.370193    Biso  1.000000 O
   O24        1.0     0.858788     0.641196     0.629807    Biso  1.000000 O
   O25        1.0     0.864868     0.864868     0.854752    Biso  1.000000 O
   O26        1.0     0.135132     0.135132     0.854752    Biso  1.000000 O
   O27        1.0     0.135132     0.864868     0.145248    Biso  1.000000 O
   O28        1.0     0.864868     0.135132     0.145248    Biso  1.000000 O
   O29        1.0     0.635118     0.364881     0.145253    Biso  1.000000 O
   O30        1.0     0.364881     0.635118     0.145253    Biso  1.000000 O
   O31        1.0     0.635118     0.635118     0.854747    Biso  1.000000 O
   O32        1.0     0.364881     0.364881     0.854747    Biso  1.000000 O
