
#======================================================================
# CRYSTAL DATA
#----------------------------------------------------------------------
data_VESTA_phase_1

_chemical_name_common                  'Wien97 struct file generated by XCrySD'
_cell_length_a                         8.464200
_cell_length_b                         8.464200
_cell_length_c                         8.464200
_cell_angle_alpha                      90.000000
_cell_angle_beta                       90.000000
_cell_angle_gamma                      90.000000
_cell_volume                           606.397990
_space_group_name_H-M_alt              'P 1'
_space_group_IT_number                 1

loop_
_space_group_symop_operation_xyz
   'x, y, z'

loop_
   _atom_site_label
   _atom_site_occupancy
   _atom_site_fract_x
   _atom_site_fract_y
   _atom_site_fract_z
   _atom_site_adp_type
   _atom_site_B_iso_or_equiv
   _atom_site_type_symbol
   Mn1        1.0     0.000000     0.000000     0.000000    Biso  1.000000 Mn
   Mn2        1.0     0.000000     0.500000     0.500000    Biso  1.000000 Mn
   Mn3        1.0     0.500000     0.500000     0.000000    Biso  1.000000 Mn
   Mn4        1.0     0.500000     0.000000     0.500000    Biso  1.000000 Mn
   Fe1        1.0     0.751463     0.248537     0.751463    Biso  1.000000 Fe
   Fe2        1.0     0.248537     0.248537     0.248537    Biso  1.000000 Fe
   Fe3        1.0     0.248537     0.751463     0.751463    Biso  1.000000 Fe
   Fe4        1.0     0.751463     0.751463     0.248537    Biso  1.000000 Fe
   Mn5        1.0     0.624088     0.624088     0.624088    Biso  1.000000 Mn
   Mn6        1.0     0.375912     0.375912     0.624088    Biso  1.000000 Mn
   Mn7        1.0     0.375912     0.624088     0.375912    Biso  1.000000 Mn
   Mn8        1.0     0.624088     0.375912     0.375912    Biso  1.000000 Mn
   Fe5        1.0     0.375578     0.872229     0.127771    Biso  1.000000 Fe
   Fe6        1.0     0.872229     0.127771     0.375578    Biso  1.000000 Fe
   Fe7        1.0     0.127771     0.375578     0.872229    Biso  1.000000 Fe
   Fe8        1.0     0.872229     0.375578     0.127771    Biso  1.000000 Fe
   Fe9        1.0     0.375578     0.127771     0.872229    Biso  1.000000 Fe
   Fe10       1.0     0.127771     0.872229     0.375578    Biso  1.000000 Fe
   Fe11       1.0     0.624422     0.127771     0.127771    Biso  1.000000 Fe
   Fe12       1.0     0.872229     0.624422     0.872229    Biso  1.000000 Fe
   Fe13       1.0     0.872229     0.872229     0.624422    Biso  1.000000 Fe
   Fe14       1.0     0.127771     0.624422     0.127771    Biso  1.000000 Fe
   Fe15       1.0     0.624422     0.872229     0.872229    Biso  1.000000 Fe
   Fe16       1.0     0.127771     0.127771     0.624422    Biso  1.000000 Fe
   O1         1.0     0.390330     0.390330     0.390330    Biso  1.000000 O
   O2         1.0     0.609670     0.609670     0.390330    Biso  1.000000 O
   O3         1.0     0.609670     0.390330     0.609670    Biso  1.000000 O
   O4         1.0     0.390330     0.609670     0.609670    Biso  1.000000 O
   O5         1.0     0.612876     0.114184     0.885815    Biso  1.000000 O
   O6         1.0     0.114184     0.885815     0.612876    Biso  1.000000 O
   O7         1.0     0.885815     0.612876     0.114184    Biso  1.000000 O
   O8         1.0     0.114184     0.612876     0.885815    Biso  1.000000 O
   O9         1.0     0.612876     0.885815     0.114184    Biso  1.000000 O
   O10        1.0     0.885815     0.114184     0.612876    Biso  1.000000 O
   O11        1.0     0.387124     0.885815     0.885815    Biso  1.000000 O
   O12        1.0     0.114184     0.387124     0.114184    Biso  1.000000 O
   O13        1.0     0.114184     0.114184     0.387124    Biso  1.000000 O
   O14        1.0     0.885815     0.387124     0.885815    Biso  1.000000 O
   O15        1.0     0.387124     0.114184     0.114184    Biso  1.000000 O
   O16        1.0     0.885815     0.885815     0.387124    Biso  1.000000 O
   O17        1.0     0.148536     0.636270     0.363730    Biso  1.000000 O
   O18        1.0     0.636270     0.363730     0.148536    Biso  1.000000 O
   O19        1.0     0.363730     0.148536     0.636270    Biso  1.000000 O
   O20        1.0     0.636270     0.148536     0.363730    Biso  1.000000 O
   O21        1.0     0.148536     0.363730     0.636270    Biso  1.000000 O
   O22        1.0     0.363730     0.636270     0.148536    Biso  1.000000 O
   O23        1.0     0.851464     0.363730     0.363730    Biso  1.000000 O
   O24        1.0     0.636270     0.851464     0.636270    Biso  1.000000 O
   O25        1.0     0.636270     0.636270     0.851464    Biso  1.000000 O
   O26        1.0     0.363730     0.851464     0.363730    Biso  1.000000 O
   O27        1.0     0.851464     0.636270     0.636270    Biso  1.000000 O
   O28        1.0     0.363730     0.363730     0.851464    Biso  1.000000 O
   O29        1.0     0.857042     0.857042     0.857042    Biso  1.000000 O
   O30        1.0     0.142958     0.142958     0.857042    Biso  1.000000 O
   O31        1.0     0.142958     0.857042     0.142958    Biso  1.000000 O
   O32        1.0     0.857042     0.142958     0.142958    Biso  1.000000 O
